<configuration>
    <input>
        <net-file value="ChicagoSketch.net.xml"/>
        <route-files value="ChicagoSketch.routes.xml"/>
    </input>
    <time>
        <begin value="0"/>
        <end value="3600"/>
    </time>
</configuration>
