<configuration>
    <input>
        <net-file value="SiouxFalls.net.xml"/>
        <route-files value="SiouxFalls.routes.xml"/>
    </input>

    <time>
        <begin value="0"/>
        <end value="3600"/>
    </time>
</configuration>
